$pyNastran: version=msc
$pyNastran: punch=False
$pyNastran: encoding=utf-8
$pyNastran: nnodes=78
$pyNastran: nelements=25
$EXECUTIVE CONTROL DECK
SOL 103
CEND
$CASE CONTROL DECK
SUBCASE 1
    SET 99 = 1 THRU 12
    DISPLACEMENT(SORT1,PUNCH, REAL) = ALL
    ECHO = BOTH
    MEFFMASS(ALL) = YES
    METHOD = 5
    SPC = 50
    SPCFORCES(SORT1, REAL) = ALL
    SUBTITLE = Default
BEGIN BULK
$PARAMS
PARAM     OMODES     ALL
PARAM       POST      -1
PARAM   PRTMAXIM     YES
PARAM     WTMASS      1.
$NODES
GRID           1        1235.608      0.      0.
GRID           2        1232.697414.6519      0.
GRID           3        1231.348829.3038      0.
GRID           4        1228.1471196.124      0.
GRID           5        1227.6631562.943      0.
GRID           6        1227.6951929.763      0.
GRID           7          1226.72296.583      0.
GRID           8          1225.82663.403      0.
GRID           9           1225.2943.278      0.
GRID          10        1224.2713223.153      0.
GRID          11        1220.6033582.494      0.
GRID          12         1216.933941.836      0.
GRID          13        1213.253 4307.61      0.
GRID          14        1210.0224673.384      0.
GRID          15        1195.3745039.158      0.
GRID          16        1170.8035404.932      0.
GRID          17        1151.3635770.706      0.
GRID          18        1135.0566091.794      0.
GRID          19        1120.4756412.882      0.
GRID          20        1107.385 6733.97      0.
$ ... 58 like lines cut
$ELEMENTS
CBEAM          1       1       1       2      0.      0.      1.
CBEAM          2       2       2       3      0.      0.      1.
CBEAM          3       3       3       4      0.      0.      1.
CBEAM          4       4       4       5      0.      0.      1.
CBEAM          5       5       5       6      0.      0.      1.
CBEAM          6       6       6       7      0.      0.      1.
CBEAM          7       7       7       8      0.      0.      1.
CBEAM          8       8       8       9      0.      0.      1.
CBEAM          9       9       9      10      0.      0.      1.
CBEAM         10      10      10      11      0.      0.      1.
CBEAM         11      11      11      12      0.      0.      1.
CBEAM         12      12      12      13      0.      0.      1.
CBEAM         13      13      13      14      0.      0.      1.
CBEAM         14      14      14      15      0.      0.      1.
CBEAM         15      15      15      16      0.      0.      1.
CBEAM         16      16      16      17      0.      0.      1.
CBEAM         17      17      17      18      0.      0.      1.
CBEAM         18      18      18      19      0.      0.      1.
CBEAM         19      19      19      20      0.      0.      1.
CBEAM         20      20      20      21      0.      0.      1.
$ ... 5 like lines cut
$PROPERTIES
PBEAM          1       112021.273.5057+8 1.175+9        6.6245+8
PBEAM          2       110733.973.1467+81.0523+9        5.9788+8
PBEAM          3       19559.6682.8026+8 9.387+8        5.3527+8
PBEAM          4       18523.8192.4884+88.3619+8        4.7527+8
PBEAM          5       17661.1362.2378+87.4613+8        4.1939+8
PBEAM          6       16888.3832.0098+86.6548+8        3.7025+8
PBEAM          7       16219.0951.8072+85.9685+8        3.3004+8
PBEAM          8       15594.1661.5936+85.5293+8          3.14+8
PBEAM          9       15159.5361.4406+85.2598+8        3.0773+8
PBEAM         10       14771.1751.2633+84.6959+8        2.7189+8
PBEAM         11       1 4263.41 1.012+8 3.929+8        2.2266+8
PBEAM         12       13769.6897.9662+73.2447+8        1.7932+8
PBEAM         13       13285.0636.1302+72.6341+8        1.4129+8
PBEAM         14       12835.7064.6281+72.1203+8        1.0969+8
PBEAM         15       12431.3973.4274+71.7046+8        8.4317+7
PBEAM         16       1 2104.42 2.565+71.3816+8        6.5317+7
PBEAM         17       11847.4841.9969+71.1355+8        5.2278+7
PBEAM         18       11642.6131.5877+79.4523+7        4.2616+7
PBEAM         19       11494.0861.2732+77.9738+7         3.485+7
PBEAM         20       11350.9159951566.6.6262+7        2.7834+7
$ ... 5 like lines cut
$MATERIALS
MAT1           1 72397.5  27000.     .32   1.-16
$MASSES
CONM1      10001       1         .015673         .015673
         .015673                                                -1.07518
                3090.135
CONM1      10002       2        .0270982        .0270982
        .0270982                                                 -1.8795
                5846.591
CONM1      10003       3        .0493254        .0493254
        .0493254                                                -2.96098
                 5745.38
CONM1      10004       4        .0601904        .0601904
        .0601904                                                 -3.2374
                5082.968
CONM1      10005       5        .0597374        .0597374
        .0597374                                                -4.08356
                5096.051
CONM1      10006       6        .0586531        .0586531
        .0586531                                                -3.92629
                4944.932
CONM1      10007       7        .0570051        .0570051
        .0570051                                                -1.68187
                4555.746
CONM1      10008       8        .6480707        .6480707
        .6480707                                                619.9055
                669109.5
CONM1      10009       9        .0424975        .0424975
        .0424975                                                -3.14634
                3534.067
CONM1      10010      10        .0481642        .0481642
        .0481642                                                -3.80089
                4032.858
CONM1      10011      11        .0497519        .0497519
        .0497519                                                -3.41797
                3950.272
CONM1      10012      12        .0475276        .0475276
        .0475276                                                -2.60272
                3668.406
CONM1      10013      13         .042088         .042088
         .042088                                                -1.69733
                3272.022
CONM1      10014      14        .0389658        .0389658
        .0389658                                                -1.20104
                2892.104
CONM1      10015      15        .0355434        .0355434
        .0355434                                                -1.11865
                2537.601
CONM1      10016      16        .0323441        .0323441
        .0323441                                                -1.35539
                2239.991
CONM1      10017      17        .0277386        .0277386
        .0277386                                                -1.57065
                1868.557
CONM1      10018      18        .0237731        .0237731
        .0237731                                                -1.23469
                1526.514
CONM1      10019      19        .0215109        .0215109
        .0215109                                                -1.34279
                 1342.24
CONM1      10020      20        .0214851        .0214851
        .0214851                                                -1.31447
                1369.487
$ ... 18 like lines cut
$RIGID ELEMENTS
RBE2         151       1  123456      27
RBE2         152       2  123456      29
RBE2         153       3  123456      31
RBE2         154       4  123456      33
RBE2         155       5  123456      35
RBE2         156       6  123456      37
RBE2         157       7  123456      39
RBE2         158       8  123456      41
RBE2         159       9  123456      43
RBE2         160      10  123456      45
RBE2         161      11  123456      47
RBE2         162      12  123456      49
RBE2         163      13  123456      51
RBE2         164      14  123456      53
RBE2         165      15  123456      55
RBE2         166      16  123456      57
RBE2         167      17  123456      59
RBE2         168      18  123456      61
RBE2         169      19  123456      63
RBE2         170      20  123456      65
$ ... 32 like lines cut
$DYNAMIC
EIGRL          5                      12                             MAX
$SPCs
SPC1          50  123456       1       2       3
ENDDATA
