$pyNastran: version=msc
$pyNastran: punch=False
$pyNastran: encoding=utf-8
$pyNastran: nnodes=27
$pyNastran: nelements=24
$EXECUTIVE CONTROL DECK
SOL 103
CEND
$CASE CONTROL DECK
SUBCASE 1
    AESYMXY = ASYMMETRIC
    AESYMXZ = SYMMETRIC
    DISPLACEMENT(SORT1,REAL) = ALL
    FMETHOD = 1
    METHOD = 10
    SPC = 50
    SPCFORCES(SORT1, REAL) = ALL
    SUBTITLE = Default
BEGIN BULK
$NODES
GRID           1         1299.18      0.      0.
GRID           2         1299.18416.4695      0.
GRID           3         1299.18 832.939      0.
GRID           4        1299.1321191.876      0.
GRID           5        1299.0831550.812      0.
GRID           6        1299.0351909.749      0.
GRID           7        1298.9862268.685      0.
GRID           8        1298.9382627.622      0.
GRID           9        1298.8723117.081      0.
GRID          10         1283.523459.948      0.
GRID          11        1268.1683802.814      0.
GRID          12        1252.8164145.681      0.
GRID          13        1237.4644488.548      0.
GRID          14        1222.1124831.414      0.
GRID          15         1206.765174.281      0.
GRID          16        1191.4095517.148      0.
GRID          17        1176.0575860.014      0.
GRID          18        1160.7056202.881      0.
GRID          19        1145.3536545.747      0.
GRID          20        1130.0016888.614      0.
$ ... 7 like lines cut
$ELEMENTS
CBEAM          1       1       1       2     100
CBEAM          2       2       2       3     100
CBEAM          3       3       3       4     100
CBEAM          4       4       4       5     100
CBEAM          5       5       5       6     100
CBEAM          6       6       6       7     100
CBEAM          7       7       7       8     100
CBEAM          8       8       8       9     100
CBEAM          9       9       9      10     100
CBEAM         10      10      10      11     100
CBEAM         11      11      11      12     100
CBEAM         12      12      12      13     100
CBEAM         13      13      13      14     100
CBEAM         14      14      14      15     100
CBEAM         15      15      15      16     100
CBEAM         16      16      16      17     100
CBEAM         17      17      17      18     100
CBEAM         18      18      18      19     100
CBEAM         19      19      19      20     100
CBEAM         20      20      20      21     100
$ ... 4 like lines cut
$PROPERTIES
PBEAM          1       112157.813.3191+81.1003+9         6.097+8
PBEAM          2       110738.442.9213+89.8081+8         5.518+8
PBEAM          3       19486.4862.5667+88.7046+8         4.918+8
PBEAM          4       18417.4692.2568+87.7462+8        4.3755+8
PBEAM          5       17433.9961.9754+86.8569+8        3.8683+8
PBEAM          6       16556.1821.7291+86.0491+8           3.4+8
PBEAM          7       16015.5551.5958+85.5232+8        3.1048+8
PBEAM          8       15311.2151.3885+85.0285+8        2.8939+8
PBEAM          9       14495.5761.0952+84.2814+8        2.4931+8
PBEAM         10       13988.313 8.803+73.5444+8        2.0176+8
PBEAM         11       13517.3236.9824+72.9251+8        1.6274+8
PBEAM         12       13072.4265.4489+72.3905+8        1.2966+8
PBEAM         13       12651.9584.1722+71.9272+8        1.0141+8
PBEAM         14       12259.0933.1267+71.5308+8        7.7619+7
PBEAM         15       11906.9412.2916+71.2116+8        5.8391+7
PBEAM         16       11658.0271.7299+7  9.86+7        4.5156+7
PBEAM         17       1 1488.021.3578+78.1925+7        3.6163+7
PBEAM         18       11350.3131.0658+7 6.829+7        2.8883+7
PBEAM         19       11260.4358542308.5.7795+7        2.3465+7
PBEAM         20       1 1190.886883323.4.9066+7        1.9176+7
$ ... 4 like lines cut
$MATERIALS
MAT1           1  72397.  27000.     .32   1.-16
$MASSES
CONM2       1001       1        .0140016
CONM2       1002       2        .0248466
CONM2       1003       3        .0254698
CONM2       1004       4         .019069
CONM2       1005       5        .0179648
CONM2       1006       6        .0169479
CONM2       1007       7        .0160897
CONM2       1008       8        .0446185
CONM2       1009       9        .0165717
CONM2       1010      10         .012979
CONM2       1011      11        .0121026
CONM2       1012      12        .0112624
CONM2       1013      13        .0104526
CONM2       1014      14        .0096748
CONM2       1015      15        .0089338
CONM2       1016      16        .0082551
CONM2       1017      17        .0077097
CONM2       1018      18        .0071939
CONM2       1019      19        .0067326
CONM2       1020      20         .006314
$ ... 7 like lines cut
$RIGID ELEMENTS
RBE2          51       8  123456     100
RBE2          52       8  123456     101
$DYNAMIC
EIGRL          1                      10
$SPCs
SPC1          50  123456       1
ENDDATA
