$pyNastran: version=msc
$pyNastran: punch=False
$pyNastran: encoding=utf-8
$pyNastran: nnodes=26
$pyNastran: nelements=25
$EXECUTIVE CONTROL DECK
SOL 145
CEND
$CASE CONTROL DECK
SUBCASE 1
    AESYMXY = ASYMMETRIC
    AESYMXZ = SYMMETRIC
    ANALYSIS = FLUTTER
    DISPLACEMENT(SORT1,REAL) = ALL
    ECHO = BOTH
    FMETHOD = 1
    METHOD = 5
    SPC = 50
    SPCFORCES(SORT1, REAL) = ALL
    STRESS(SORT1,REAL) = ALL
    SUBTITLE = Default
BEGIN BULK
$PARAMS
PARAM      Aunit      1.
PARAM     OMODES     ALL
PARAM       POST      -1
PARAM   PRTMAXIM     YES
PARAM      SNORM     20.
PARAM     WTMASS      1.
$POINTS
POINT        201              0.      0.      0.
POINT        202        2441.247      0.      0.
POINT        203              0.829.3038      0.
POINT        204        2441.247829.3038      0.
POINT        205        83.595043223.153      0.
POINT        206        2426.1313223.153      0.
POINT        207        654.0062 8878.01      0.
POINT        208        1657.174 8878.01      0.
$NODES
GRID           1        1235.608      0.      0.
GRID           2        1232.697414.6519      0.
GRID           3        1231.348829.3038      0.
GRID           4        1228.1471196.124      0.
GRID           5        1227.6631562.943      0.
GRID           6        1227.6951929.763      0.
GRID           7          1226.72296.583      0.
GRID           8          1225.82663.403      0.
GRID           9           1225.2943.278      0.
GRID          10        1224.2713223.153      0.
GRID          11        1220.6033582.494      0.
GRID          12         1216.933941.836      0.
GRID          13        1213.253 4307.61      0.
GRID          14        1210.0224673.384      0.
GRID          15        1195.3745039.158      0.
GRID          16        1170.8035404.932      0.
GRID          17        1151.3635770.706      0.
GRID          18        1135.0566091.794      0.
GRID          19        1120.4756412.882      0.
GRID          20        1107.385 6733.97      0.
$ ... 6 like lines cut
$ELEMENTS
CBEAM          1       1       1       2      0.      0.      1.
CBEAM          2       2       2       3      0.      0.      1.
CBEAM          3       3       3       4      0.      0.      1.
CBEAM          4       4       4       5      0.      0.      1.
CBEAM          5       5       5       6      0.      0.      1.
CBEAM          6       6       6       7      0.      0.      1.
CBEAM          7       7       7       8      0.      0.      1.
CBEAM          8       8       8       9      0.      0.      1.
CBEAM          9       9       9      10      0.      0.      1.
CBEAM         10      10      10      11      0.      0.      1.
CBEAM         11      11      11      12      0.      0.      1.
CBEAM         12      12      12      13      0.      0.      1.
CBEAM         13      13      13      14      0.      0.      1.
CBEAM         14      14      14      15      0.      0.      1.
CBEAM         15      15      15      16      0.      0.      1.
CBEAM         16      16      16      17      0.      0.      1.
CBEAM         17      17      17      18      0.      0.      1.
CBEAM         18      18      18      19      0.      0.      1.
CBEAM         19      19      19      20      0.      0.      1.
CBEAM         20      20      20      21      0.      0.      1.
$ ... 5 like lines cut
$PROPERTIES
PBEAM          1       112021.393.5057+8 1.175+9        6.6246+8
PBEAM          2       110734.063.1467+81.0523+9        5.9789+8
PBEAM          3       19559.7562.8026+89.3871+8        5.3528+8
PBEAM          4       1  8523.92.4884+8 8.362+8        4.7528+8
PBEAM          5       17661.2092.2378+87.4614+8         4.194+8
PBEAM          6       16888.4442.0098+86.6548+8        3.7025+8
PBEAM          7       16219.1451.8072+85.9685+8        3.3005+8
PBEAM          8       15594.2011.5936+85.5294+8        3.1401+8
PBEAM          9       15159.5571.4406+85.2598+8        3.0773+8
PBEAM         10       14771.1921.2633+84.6959+8        2.7189+8
PBEAM         11       14263.422 1.012+8 3.929+8        2.2266+8
PBEAM         12       13769.6957.9662+73.2447+8        1.7932+8
PBEAM         13       13285.0636.1302+72.6341+8        1.4129+8
PBEAM         14       12835.699 4.628+72.1203+8        1.0969+8
PBEAM         15       12431.3843.4274+71.7046+8        8.4316+7
PBEAM         16       12104.411 2.565+71.3816+8        6.5317+7
PBEAM         17       11847.4881.9969+71.1355+8        5.2278+7
PBEAM         18       11642.6221.5877+79.4524+7        4.2616+7
PBEAM         19       11494.0931.2732+77.9739+7        3.4851+7
PBEAM         20       11350.9199951595.6.6262+7        2.7834+7
$ ... 5 like lines cut
$MATERIALS
MAT1           1 72397.5  27000.     .32   1.-16
$MASSES
CONM1      10001       1        .0156721        .0156721
        .0156721                                                1.075089
                3090.133
CONM1      10002       2        .0270964        .0270964
        .0270964                                                1.879327
                5846.587
CONM1      10003       3        .0393778        .0393778
        .0393778                                                2.541532
                5727.699
CONM1      10004       4        .0410583        .0410583
        .0410583                                                2.431942
                5049.063
CONM1      10005       5        .0404465        .0404465
        .0404465                                                2.854825
                5017.794
CONM1      10006       6        .0394386        .0394386
        .0394386                                                2.768718
                4875.199
CONM1      10007       7        .0380987        .0380987
        .0380987                                                1.299572
                4548.031
CONM1      10008       8        .6308034        .6308034
        .6308034                                                -619.209
                668865.3
CONM1      10009       9        .0282305        .0282305
        .0282305                                                2.232507
                3475.534
CONM1      10010      10        .0318505        .0318505
        .0318505                                                 2.58953
                3942.912
CONM1      10011      11        .0329505        .0329505
        .0329505                                                2.369669
                3884.866
CONM1      10012      12        .0314855        .0314855
        .0314855                                                1.791064
                3627.341
CONM1      10013      13        .0279061        .0279061
        .0279061                                                1.149989
                3250.898
CONM1      10014      14        .0259532        .0259532
        .0259532                                                .8401225
                2882.094
CONM1      10015      15        .0237983        .0237983
        .0237983                                                .8046816
                2529.207
CONM1      10016      16        .0215416        .0215416
        .0215416                                                .9667708
                2200.104
CONM1      10017      17        .0192973        .0192973
        .0192973                                                1.117104
                 1890.98
CONM1      10018      18        .0160499        .0160499
        .0160499                                                .9043306
                1491.706
CONM1      10019      19        .0148446        .0148446
        .0148446                                                .9719836
                1321.614
CONM1      10020      20         .014889         .014889
         .014889                                                .9521437
                1349.583
$ ... 18 like lines cut
$AERO
CAERO4    103001  103001                       1
              0.      0.      0.2441.247      0.829.3038      0.2441.247
CAERO4    104001  104001                       2
              0.829.3038      0.2441.24783.595043223.153      0.2342.536
CAERO4    105001  105001                       3
        83.595043223.153      0.2342.536654.0062 8878.01      0.1003.168
PAERO4    103001       0       0       0       0      0.      0.      0.
              0.      0.      0.      0.      0.      0.      0.      0.
              0.
PAERO4    104001       0       0       0       0      0.      0.      0.
              0.      0.      0.      0.      0.      0.      0.      0.
              0.      0.      0.      0.      0.      0.      0.      0.
              0.      0.      0.      0.      0.      0.      0.      0.
              0.      0.      0.      0.      0.      0.      0.      0.
              0.
PAERO4    105001       0       0       0       0      0.      0.      0.
              0.      0.      0.      0.      0.      0.      0.      0.
              0.      0.      0.      0.      0.      0.      0.      0.
              0.      0.      0.      0.      0.      0.      0.      0.
              0.      0.      0.      0.      0.      0.      0.      0.
              0.      0.      0.      0.      0.      0.      0.      0.
              0.      0.      0.      0.      0.      0.      0.      0.
              0.      0.      0.      0.      0.      0.      0.      0.
              0.      0.      0.      0.      0.      0.      0.      0.
              0.      0.      0.      0.      0.      0.      0.      0.
              0.      0.      0.      0.      0.      0.      0.      0.
              0.      0.      0.      0.      0.      0.      0.      0.
              0.      0.      0.      0.      0.
$DYNAMIC
EIGRL          5                      12                             MAX
$AERO CONTROL SURFACES
AELIST         1  103001  103002  103003  103004  104001  104002  104003
          104004  104005  104006  104007  104008  104009  104010  104011
          104012  105001  105002  105003  105004  105005  105006  105007
          105008  105009  105010  105011  105012  105013  105014  105015
          105016  105017  105018  105019  105020  105021  105022  105023
          105024  105025  105026  105027  105028  105029  105030  105031
          105032
AEFACT         1      0.     .25      .5     .75      1.
AEFACT         2      0..0833333.1666667     .25.3333333.4166667      .5
        .5833333.6666667     .75.8333333.9166667      1.
AEFACT         3      0.  .03125   .0625  .09375    .125  .15625   .1875
          .21875     .25  .28125   .3125  .34375    .375  .40625   .4375
          .46875      .5  .53125   .5625  .59375    .625  .65625   .6875
          .71875     .75  .78125   .8125  .84375    .875  .90625   .9375
          .96875      1.
$STATIC AERO
AEROS          0       0   2100.  17760. 1.721+7
$FLUTTER
AERO           0      1.   2100.1.225-12
FLUTTER        1      PK       1       2       3       L
FLFACT         1.6669388
FLFACT         2      0.
FLFACT         3 -52000.-82736.8-113474.-144210.-174947.-205684.-236421.
        -267158.-297895.-328632.-359368.-390105.-420842.-451579.-482316.
        -513053.-543790.-574526.-605263.-636000.
MKAERO2       0..0479589
MKAERO2       0..1016361
MKAERO2       0..1610566
MKAERO2       0..2271944
MKAERO2       0..3012569
MKAERO2       0..3847589
MKAERO2       0..4796282
MKAERO2       0..5883553
MKAERO2       0..7142158
MKAERO2       0..8616061
MKAERO2       0.1.036567
MKAERO2       0.1.247633
MKAERO2       0.1.507266
MKAERO2       0.1.834408
MKAERO2       0.2.259325
MKAERO2       0. 2.83355
MKAERO2       0.3.652555
MKAERO2       0. 4.91525
MKAERO2       0.7.116131
MKAERO2       0.11.91886
$ ... 200 like lines cut
$SPCs
SPCADD         1      50
SPC1          50  123456       1       2       3
$SETS
SET1           1       1       2       3       4       5       6       7
               8       9      10      11      12      13      14      15
              16      17      18      19      20      21      22      23
              24      25      26
$REJECT_CARDS
SPLINE7        1  105001       1               1      1.      1.
                                    BOTH    FBS6      1.      1.
ENDDATA
