$pyNastran: version=msc
$pyNastran: punch=False
$pyNastran: encoding=utf-8
$pyNastran: nnodes=26
$pyNastran: nelements=25
$EXECUTIVE CONTROL DECK
SOL 145
CEND
$CASE CONTROL DECK
SUBCASE 1
    AESYMXY = ASYMMETRIC
    AESYMXZ = SYMMETRIC
    ANALYSIS = FLUTTER
    DISPLACEMENT(SORT1,REAL) = ALL
    FMETHOD = 1
    METHOD = 5
    SPC = 50
    SPCFORCES(SORT1, REAL) = ALL
    SUBTITLE = Default
BEGIN BULK
$PARAMS
PARAM      Aunit      1.
PARAM       POST      -1
PARAM   PRTMAXIM     YES
PARAM      SNORM     20.
PARAM     WTMASS      1.
$POINTS
POINT        201              0.      0.      0.
POINT        202        2441.247      0.      0.
POINT        203              0.829.3038      0.
POINT        204        2441.247829.3038      0.
POINT        205        83.595043223.153      0.
POINT        206        2426.1313223.153      0.
POINT        207        654.0062 8878.01      0.
POINT        208        1657.174 8878.01      0.
$NODES
GRID           1        1235.608      0.      0.
GRID           2        1232.697414.6519      0.
GRID           3        1231.348829.3038      0.
GRID           4        1228.1471196.124      0.
GRID           5        1227.6631562.943      0.
GRID           6        1227.6951929.763      0.
GRID           7          1226.72296.583      0.
GRID           8          1225.82663.403      0.
GRID           9           1225.2943.278      0.
GRID          10        1224.2713223.153      0.
GRID          11        1220.6033582.494      0.
GRID          12         1216.933941.836      0.
GRID          13        1213.253 4307.61      0.
GRID          14        1210.0224673.384      0.
GRID          15        1195.3745039.158      0.
GRID          16        1170.8035404.932      0.
GRID          17        1151.3635770.706      0.
GRID          18        1135.0566091.794      0.
GRID          19        1120.4756412.882      0.
GRID          20        1107.385 6733.97      0.
$ ... 6 like lines cut
$ELEMENTS
CBEAM          1       1       1       2      0.      0.      1.
CBEAM          2       2       2       3      0.      0.      1.
CBEAM          3       3       3       4      0.      0.      1.
CBEAM          4       4       4       5      0.      0.      1.
CBEAM          5       5       5       6      0.      0.      1.
CBEAM          6       6       6       7      0.      0.      1.
CBEAM          7       7       7       8      0.      0.      1.
CBEAM          8       8       8       9      0.      0.      1.
CBEAM          9       9       9      10      0.      0.      1.
CBEAM         10      10      10      11      0.      0.      1.
CBEAM         11      11      11      12      0.      0.      1.
CBEAM         12      12      12      13      0.      0.      1.
CBEAM         13      13      13      14      0.      0.      1.
CBEAM         14      14      14      15      0.      0.      1.
CBEAM         15      15      15      16      0.      0.      1.
CBEAM         16      16      16      17      0.      0.      1.
CBEAM         17      17      17      18      0.      0.      1.
CBEAM         18      18      18      19      0.      0.      1.
CBEAM         19      19      19      20      0.      0.      1.
CBEAM         20      20      20      21      0.      0.      1.
$ ... 5 like lines cut
$PROPERTIES
PBEAM          1       112021.273.5057+8 1.175+9        6.6245+8
PBEAM          2       110733.973.1467+81.0523+9        5.9788+8
PBEAM          3       19559.6682.8026+8 9.387+8        5.3527+8
PBEAM          4       18523.8192.4884+88.3619+8        4.7527+8
PBEAM          5       17661.1362.2378+87.4613+8        4.1939+8
PBEAM          6       16888.3832.0098+86.6548+8        3.7025+8
PBEAM          7       16219.0951.8072+85.9685+8        3.3004+8
PBEAM          8       15594.1661.5936+85.5293+8          3.14+8
PBEAM          9       15159.5361.4406+85.2598+8        3.0773+8
PBEAM         10       14771.1751.2633+84.6959+8        2.7189+8
PBEAM         11       1 4263.41 1.012+8 3.929+8        2.2266+8
PBEAM         12       13769.6897.9662+73.2447+8        1.7932+8
PBEAM         13       13285.0636.1302+72.6341+8        1.4129+8
PBEAM         14       12835.7064.6281+72.1203+8        1.0969+8
PBEAM         15       12431.3973.4274+71.7046+8        8.4317+7
PBEAM         16       1 2104.42 2.565+71.3816+8        6.5317+7
PBEAM         17       11847.4841.9969+71.1355+8        5.2278+7
PBEAM         18       11642.6131.5877+79.4523+7        4.2616+7
PBEAM         19       11494.0861.2732+77.9738+7         3.485+7
PBEAM         20       11350.9159951566.6.6262+7        2.7834+7
$ ... 5 like lines cut
$MATERIALS
MAT1           1 72397.5  27000.     .32   1.-16
$MASSES
CONM1      10001       1        .0156721        .0156721
        .0156721                                                1.075089
                3090.133
CONM1      10002       2        .0270964        .0270964
        .0270964                                                1.879327
                5846.587
CONM1      10003       3        .0393778        .0393778
        .0393778                                                2.541532
                5727.699
CONM1      10004       4        .0410583        .0410583
        .0410583                                                2.431942
                5049.063
CONM1      10005       5        .0404465        .0404465
        .0404465                                                2.854825
                5017.794
CONM1      10006       6        .0394386        .0394386
        .0394386                                                2.768718
                4875.199
CONM1      10007       7        .0380987        .0380987
        .0380987                                                1.299572
                4548.031
CONM1      10008       8        .6308034        .6308034
        .6308034                                                -619.209
                668865.3
CONM1      10009       9        .0282305        .0282305
        .0282305                                                2.232507
                3475.534
CONM1      10010      10        .0318505        .0318505
        .0318505                                                 2.58953
                3942.912
CONM1      10011      11        .0329505        .0329505
        .0329505                                                2.369669
                3884.866
CONM1      10012      12        .0314855        .0314855
        .0314855                                                1.791064
                3627.341
CONM1      10013      13        .0279061        .0279061
        .0279061                                                1.149989
                3250.898
CONM1      10014      14        .0259532        .0259532
        .0259532                                                .8401225
                2882.094
CONM1      10015      15        .0237983        .0237983
        .0237983                                                .8046816
                2529.207
CONM1      10016      16        .0215416        .0215416
        .0215416                                                .9667708
                2200.104
CONM1      10017      17        .0192973        .0192973
        .0192973                                                1.117104
                 1890.98
CONM1      10018      18        .0160499        .0160499
        .0160499                                                .9043306
                1491.706
CONM1      10019      19        .0148446        .0148446
        .0148446                                                .9719836
                1321.614
CONM1      10020      20         .014889         .014889
         .014889                                                .9521437
                1349.583
$ ... 18 like lines cut
$AERO
CAERO1    103001  103001                       6       1               1
              0.      0.      0.2441.247      0.829.3038      0.2441.247
CAERO1    104001  104001                       6       2               1
              0.829.3038      0.2441.24783.595043223.153      0.2342.536
CAERO1    105001  105001                       6       3               1
        83.595043223.153      0.2342.536654.0062 8878.01      0.1003.168
PAERO1    103001
PAERO1    104001
PAERO1    105001
$DYNAMIC
EIGRL          5                      12                             MAX
$AERO CONTROL SURFACES
AELIST         1  103001  103002  103003  103004  103005  103006  103007
          103008  103009  103010  103011  103012  103013  103014  103015
          103016  103017  103018  103019  103020  103021  103022  103023
          103024  104001  104002  104003  104004  104005  104006  104007
          104008  104009  104010  104011  104012  104013  104014  104015
          104016  104017  104018  104019  104020  104021  104022  104023
          104024  104025  104026  104027  104028  104029  104030  104031
          104032  104033  104034  104035  104036  104037  104038  104039
          104040  104041  104042  104043  104044  104045  104046  104047
          104048  104049  104050  104051  104052  104053  104054  104055
          104056  104057  104058  104059  104060  104061  104062  104063
          104064  104065  104066  104067  104068  104069  104070  104071
          104072  104073  104074  104075  104076  104077  104078  105001
          105002  105003  105004  105005  105006  105007  105008  105009
          105010  105011  105012  105013  105014  105015  105016  105017
          105018  105019  105020  105021  105022  105023  105024  105025
          105026  105027  105028  105029  105030  105031  105032  105033
          105034  105035  105036  105037  105038  105039  105040  105041
          105042  105043  105044  105045  105046  105047  105048  105049
          105050  105051  105052  105053  105054  105055  105056  105057
          105058  105059  105060  105061  105062  105063  105064  105065
$ ... 18 like lines cut
AEFACT         1      0.     .25      .5     .75      1.
AEFACT         2      0.     .08     .16     .24     .32      .4     .48
             .56     .64     .72      .8.8666667.9333333      1.
AEFACT         3      0.    .028    .056    .084    .112     .14   .1725
            .205   .2375     .27   .3025    .335   .3675      .4   .4325
            .465   .4975     .53   .5625    .595   .6275     .66   .6925
            .725   .7575     .79   .8225    .855   .8875     .92    .936
            .952    .968    .984      1.
$STATIC AERO
AEROS          0       0   2100.  17760. 1.721+7
$FLUTTER
AERO           0      1.   2100.1.225-12
FLUTTER        1      PK       1       2       3       L
FLFACT         1.6669388
FLFACT         2      0.
FLFACT         3  63668.  79585.  97951. 116317. 134683. 153048. 171414.
         183658. 195902. 208146. 220390. 232634. 244878. 257121. 269365.
         281609. 293853.
MKAERO2       0. .096566
MKAERO2       0. .253591
MKAERO2       0. .425303
MKAERO2       0. .613075
MKAERO2       0. .818411
MKAERO2       0.1.042951
MKAERO2       0.1.288494
MKAERO2       0.1.557003
MKAERO2       0.1.850626
MKAERO2       0.2.171713
MKAERO2       0.2.522831
MKAERO2       0. 2.90679
MKAERO2       0.3.326662
MKAERO2       0.3.785806
MKAERO2       0.4.287895
MKAERO2       0.4.836945
MKAERO2       0.5.437348
MKAERO2       0. 6.09391
MKAERO2       0.6.811881
MKAERO2       0.7.597005
$ ... 200 like lines cut
$SPCs
SPCADD         1      50
SPC1          50  123456       1       2       3
$SETS
SET1           1       1       2       3       4       5       6       7
               8       9      10      11      12      13      14      15
              16      17      18      19      20      21      22      23
              24      25      26
$REJECT_CARDS
SPLINE7        1  105001       1               1      1.      1.
                                    BOTH    FBS6      1.      1.
ENDDATA
