$pyNastran: version=msc
$pyNastran: punch=False
$pyNastran: encoding=utf-8
$pyNastran: nnodes=78
$pyNastran: nelements=25
$EXECUTIVE CONTROL DECK
SOL 103
CEND
$CASE CONTROL DECK
SUBCASE 1
    DISPLACEMENT(SORT1,PUNCH, REAL) = ALL
    ECHO = BOTH
    MEFFMASS(ALL) = YES
    METHOD = 5
    SPC = 50
    SPCFORCES(SORT1, REAL) = ALL
    SUBTITLE = Default
BEGIN BULK
$PARAMS
PARAM     OMODES     ALL
PARAM       POST      -1
PARAM   PRTMAXIM     YES
PARAM     WTMASS      1.
$NODES
GRID           1        1235.608      0.      0.
GRID           2        1232.697414.6519      0.
GRID           3        1231.348829.3038      0.
GRID           4        1228.1471196.124      0.
GRID           5        1227.6631562.943      0.
GRID           6        1227.6951929.763      0.
GRID           7          1226.72296.583      0.
GRID           8          1225.82663.403      0.
GRID           9           1225.2943.278      0.
GRID          10        1224.2713223.153      0.
GRID          11        1220.6033582.494      0.
GRID          12         1216.933941.836      0.
GRID          13        1213.253 4307.61      0.
GRID          14        1210.0224673.384      0.
GRID          15        1195.3745039.158      0.
GRID          16        1170.8035404.932      0.
GRID          17        1151.3635770.706      0.
GRID          18        1135.0566091.794      0.
GRID          19        1120.4756412.882      0.
GRID          20        1107.385 6733.97      0.
$ ... 58 like lines cut
$ELEMENTS
CBEAM          1       1       1       2      0.      0.      1.
CBEAM          2       2       2       3      0.      0.      1.
CBEAM          3       3       3       4      0.      0.      1.
CBEAM          4       4       4       5      0.      0.      1.
CBEAM          5       5       5       6      0.      0.      1.
CBEAM          6       6       6       7      0.      0.      1.
CBEAM          7       7       7       8      0.      0.      1.
CBEAM          8       8       8       9      0.      0.      1.
CBEAM          9       9       9      10      0.      0.      1.
CBEAM         10      10      10      11      0.      0.      1.
CBEAM         11      11      11      12      0.      0.      1.
CBEAM         12      12      12      13      0.      0.      1.
CBEAM         13      13      13      14      0.      0.      1.
CBEAM         14      14      14      15      0.      0.      1.
CBEAM         15      15      15      16      0.      0.      1.
CBEAM         16      16      16      17      0.      0.      1.
CBEAM         17      17      17      18      0.      0.      1.
CBEAM         18      18      18      19      0.      0.      1.
CBEAM         19      19      19      20      0.      0.      1.
CBEAM         20      20      20      21      0.      0.      1.
$ ... 5 like lines cut
$PROPERTIES
PBEAM          1       112021.393.5057+8 1.175+9        6.6246+8
PBEAM          2       110734.063.1467+81.0523+9        5.9789+8
PBEAM          3       19559.7562.8026+89.3871+8        5.3528+8
PBEAM          4       1  8523.92.4884+8 8.362+8        4.7528+8
PBEAM          5       17661.2092.2378+87.4614+8         4.194+8
PBEAM          6       16888.4442.0098+86.6548+8        3.7025+8
PBEAM          7       16219.1451.8072+85.9685+8        3.3005+8
PBEAM          8       15594.2011.5936+85.5294+8        3.1401+8
PBEAM          9       15159.5571.4406+85.2598+8        3.0773+8
PBEAM         10       14771.1921.2633+84.6959+8        2.7189+8
PBEAM         11       14263.422 1.012+8 3.929+8        2.2266+8
PBEAM         12       13769.6957.9662+73.2447+8        1.7932+8
PBEAM         13       13285.0636.1302+72.6341+8        1.4129+8
PBEAM         14       12835.699 4.628+72.1203+8        1.0969+8
PBEAM         15       12431.3843.4274+71.7046+8        8.4316+7
PBEAM         16       12104.411 2.565+71.3816+8        6.5317+7
PBEAM         17       11847.4881.9969+71.1355+8        5.2278+7
PBEAM         18       11642.6221.5877+79.4524+7        4.2616+7
PBEAM         19       11494.0931.2732+77.9739+7        3.4851+7
PBEAM         20       11350.9199951595.6.6262+7        2.7834+7
$ ... 5 like lines cut
$MATERIALS
MAT1           1 72397.5  27000.     .32   1.-16
$MASSES
CONM1      10001       1        .0156721        .0156721
        .0156721                                                -1.07509
                3090.133
CONM1      10002       2        .0270964        .0270964
        .0270964                                                -1.87933
                5846.587
CONM1      10003       3         .029432         .029432
         .029432                                                -2.12227
                5710.025
CONM1      10004       4        .0219277        .0219277
        .0219277                                                -1.62668
                5015.167
CONM1      10005       5        .0211572        .0211572
        .0211572                                                -1.62631
                4939.551
CONM1      10006       6        .0202258        .0202258
        .0202258                                                -1.61139
                4805.486
CONM1      10007       7        .0191938        .0191938
        .0191938                                                -.916685
                4540.276
CONM1      10008       8         .613538         .613538
         .613538                                                618.6186
                 668845.
CONM1      10009       9        .0139646        .0139646
        .0139646                                                -1.31877
                3417.009
CONM1      10010      10         .015538         .015538
         .015538                                                -1.37823
                3852.966
CONM1      10011      11        .0161505        .0161505
        .0161505                                                -1.32142
                 3819.46
CONM1      10012      12        .0154449        .0154449
        .0154449                                                -.979446
                3586.274
CONM1      10013      13        .0137255        .0137255
        .0137255                                                 -.60267
                3229.773
CONM1      10014      14         .012942         .012942
         .012942                                                -.479209
                2872.082
CONM1      10015      15        .0120544        .0120544
        .0120544                                                -.490768
                2520.816
CONM1      10016      16        .0111044        .0111044
        .0111044                                                -.593439
                2186.751
CONM1      10017      17        .0101622        .0101622
        .0101622                                                -.625296
                1864.503
CONM1      10018      18        .0086591        .0086591
        .0086591                                                -.590947
                1478.418
CONM1      10019      19        .0081793        .0081793
        .0081793                                                 -.60124
                1300.992
CONM1      10020      20        .0082939        .0082939
        .0082939                                                -.589883
                1329.685
$ ... 18 like lines cut
$RIGID ELEMENTS
RBE2         151       1  123456      27
RBE2         152       2  123456      29
RBE2         153       3  123456      31
RBE2         154       4  123456      33
RBE2         155       5  123456      35
RBE2         156       6  123456      37
RBE2         157       7  123456      39
RBE2         158       8  123456      41
RBE2         159       9  123456      43
RBE2         160      10  123456      45
RBE2         161      11  123456      47
RBE2         162      12  123456      49
RBE2         163      13  123456      51
RBE2         164      14  123456      53
RBE2         165      15  123456      55
RBE2         166      16  123456      57
RBE2         167      17  123456      59
RBE2         168      18  123456      61
RBE2         169      19  123456      63
RBE2         170      20  123456      65
$ ... 32 like lines cut
$DYNAMIC
EIGRL          5                      12                             MAX
$SPCs
SPC1          50  123456       1       2       3
ENDDATA
