$pyNastran: version=msc
$pyNastran: punch=False
$pyNastran: encoding=utf-8
$pyNastran: nnodes=27
$pyNastran: nelements=24
$EXECUTIVE CONTROL DECK
SOL 145
CEND
$CASE CONTROL DECK
SUBCASE 1
    AESYMXY = ASYMMETRIC
    AESYMXZ = SYMMETRIC
    ANALYSIS = FLUTTER
    FMETHOD = 1
    METHOD = 1
    SPC = 2
    SPCFORCES(SORT1, REAL) = ALL
    SUBTITLE = Default
    SVECTOR(SORT1,REAL) = ALL
BEGIN BULK
$PARAMS
PARAM       POST       0
PARAM   PRTMAXIM     YES
PARAM      SNORM     20.
PARAM     WTMASS      1.
$POINTS
POINT        201              0.      0.      0.
POINT        202           2360.      0.      0.
POINT        203              0.   832.9      0.
POINT        204           2360.   832.9      0.
POINT        205            79.8  3117.1      0.
POINT        206          2345.8  3117.1      0.
POINT        207           631.5   8587.      0.
POINT        208          1601.5   8587.      0.
$NODES
GRID           1         1299.18      0.      0.
GRID           2         1299.18416.4695      0.
GRID           3         1299.18 832.939      0.
GRID           4        1299.1321191.876      0.
GRID           5        1299.0831550.812      0.
GRID           6        1299.0351909.749      0.
GRID           7        1298.9862268.685      0.
GRID           8        1298.9382627.622      0.
GRID           9        1298.8723117.081      0.
GRID          10         1283.523459.948      0.
GRID          11        1268.1683802.814      0.
GRID          12        1252.8164145.681      0.
GRID          13        1237.4644488.548      0.
GRID          14        1222.1124831.414      0.
GRID          15         1206.765174.281      0.
GRID          16        1191.4095517.148      0.
GRID          17        1176.0575860.014      0.
GRID          18        1160.7056202.881      0.
GRID          19        1145.3536545.747      0.
GRID          20        1130.0016888.614      0.
$ ... 7 like lines cut
$ELEMENTS
CBEAM          1       1       1       2     100
CBEAM          2       2       2       3     100
CBEAM          3       3       3       4     100
CBEAM          4       4       4       5     100
CBEAM          5       5       5       6     100
CBEAM          6       6       6       7     100
CBEAM          7       7       7       8     100
CBEAM          8       8       8       9     100
CBEAM          9       9       9      10     100
CBEAM         10      10      10      11     100
CBEAM         11      11      11      12     100
CBEAM         12      12      12      13     100
CBEAM         13      13      13      14     100
CBEAM         14      14      14      15     100
CBEAM         15      15      15      16     100
CBEAM         16      16      16      17     100
CBEAM         17      17      17      18     100
CBEAM         18      18      18      19     100
CBEAM         19      19      19      20     100
CBEAM         20      20      20      21     100
$ ... 4 like lines cut
$PROPERTIES
PBEAM          1       112157.813.3191+81.1003+9         6.097+8
PBEAM          2       110738.442.9213+89.8081+8         5.518+8
PBEAM          3       19486.4862.5667+88.7046+8         4.918+8
PBEAM          4       18417.4692.2568+87.7462+8        4.3755+8
PBEAM          5       17433.9961.9754+86.8569+8        3.8683+8
PBEAM          6       16556.1821.7291+86.0491+8           3.4+8
PBEAM          7       16015.5551.5958+85.5232+8        3.1048+8
PBEAM          8       15311.2151.3885+85.0285+8        2.8939+8
PBEAM          9       14495.5761.0952+84.2814+8        2.4931+8
PBEAM         10       13988.313 8.803+73.5444+8        2.0176+8
PBEAM         11       13517.3236.9824+72.9251+8        1.6274+8
PBEAM         12       13072.4265.4489+72.3905+8        1.2966+8
PBEAM         13       12651.9584.1722+71.9272+8        1.0141+8
PBEAM         14       12259.0933.1267+71.5308+8        7.7619+7
PBEAM         15       11906.9412.2916+71.2116+8        5.8391+7
PBEAM         16       11658.0271.7299+7  9.86+7        4.5156+7
PBEAM         17       1 1488.021.3578+78.1925+7        3.6163+7
PBEAM         18       11350.3131.0658+7 6.829+7        2.8883+7
PBEAM         19       11260.4358542308.5.7795+7        2.3465+7
PBEAM         20       1 1190.886883323.4.9066+7        1.9176+7
$ ... 4 like lines cut
$MATERIALS
MAT1           1  72397.  27000.     .32   1.-16
$MASSES
CONM2       1001       1        .0140016
CONM2       1002       2        .0248466
CONM2       1003       3        .0254698
CONM2       1004       4         .019069
CONM2       1005       5        .0179648
CONM2       1006       6        .0169479
CONM2       1007       7        .0160897
CONM2       1008       8        .0446185
CONM2       1009       9        .0165717
CONM2       1010      10         .012979
CONM2       1011      11        .0121026
CONM2       1012      12        .0112624
CONM2       1013      13        .0104526
CONM2       1014      14        .0096748
CONM2       1015      15        .0089338
CONM2       1016      16        .0082551
CONM2       1017      17        .0077097
CONM2       1018      18        .0071939
CONM2       1019      19        .0067326
CONM2       1020      20         .006314
$ ... 7 like lines cut
$RIGID ELEMENTS
RBE2          51       8  123456     100
RBE2          52       8  123456     101
$AERO
CAERO1    103001  103001               5       5                       1
              0.      0.      0.   2360.      0.   832.9      0.   2360.
CAERO1    104001  104001              14       5                       1
              0.   832.9      0.   2360.    79.8  3117.1      0.   2266.
CAERO1    105001  105001              33       5                       1
            79.8  3117.1      0.   2266.   631.5   8587.      0.    970.
PAERO1    103001
PAERO1    104001
PAERO1    105001
SPLINE4        1  105001       1               1             FPS
$DYNAMIC
EIGRL          1                      10
$AERO CONTROL SURFACES
AELIST         1  103001  103002  103003  103004  103005  103006  103007
          103008  103009  103010  103011  103012  103013  103014  103015
          103016  103017  103018  103019  103020  103021  103022  103023
          103024  103025  104001  104002  104003  104004  104005  104006
          104007  104008  104009  104010  104011  104012  104013  104014
          104015  104016  104017  104018  104019  104020  104021  104022
          104023  104024  104025  104026  104027  104028  104029  104030
          104031  104032  104033  104034  104035  104036  104037  104038
          104039  104040  104041  104042  104043  104044  104045  104046
          104047  104048  104049  104050  104051  104052  104053  104054
          104055  104056  104057  104058  104059  104060  104061  104062
          104063  104064  104065  104066  104067  104068  104069  104070
          105001  105002  105003  105004  105005  105006  105007  105008
          105009  105010  105011  105012  105013  105014  105015  105016
          105017  105018  105019  105020  105021  105022  105023  105024
          105025  105026  105027  105028  105029  105030  105031  105032
          105033  105034  105035  105036  105037  105038  105039  105040
          105041  105042  105043  105044  105045  105046  105047  105048
          105049  105050  105051  105052  105053  105054  105055  105056
          105057  105058  105059  105060  105061  105062  105063  105064
          105065  105066  105067  105068  105069  105070  105071  105072
$ ... 12 like lines cut
$STATIC AERO
AEROS          0       0   1984.  17174.1.6135+7
$FLUTTER
AERO           0      1.   1984.1.228-12
FLUTTER        1      PK       1       2       3       L
FLFACT         1.6669388
FLFACT         2      0.
FLFACT         3 -52000. -57375. -62750. -73500. -78875. -84250. -89625.
         -95000.-100375.-105750.-111125.-116500.-121875.-127250.-132625.
        -138000.-143375.-148750.-154125.-159500.
MKAERO2       0..3518427
MKAERO2       0. 4.60929
MKAERO2       0.8.866737
MKAERO2       0.13.12418
MKAERO2       0.17.38163
MKAERO2       0.21.63908
MKAERO2       0.25.89652
MKAERO2       0.30.15397
MKAERO2       0.34.41142
MKAERO2       0.38.66886
MKAERO2       0.42.92631
MKAERO2       0.47.18375
MKAERO2       0. 51.4412
MKAERO2       0.55.69865
MKAERO2       0. 59.9561
MKAERO2       .1.3518427
MKAERO2       .1 4.60929
MKAERO2       .18.866737
MKAERO2       .113.12418
MKAERO2       .117.38163
$ ... 85 like lines cut
$SPCs
SPCADD         2      50
SPC1          50  123456       1
$SETS
SET1           1       1       2       3       4       5       6       7
               8       9      10      11      12      13      14      15
              16      17      18      19      20      21      22      23
              24      25     100     101
ENDDATA
